
---------- Begin Simulation Statistics ----------
simSeconds                                   0.117272                       # Number of seconds simulated (Second)
simTicks                                 117271771173                       # Number of ticks simulated (Tick)
finalTick                                117271771173                       # Number of ticks from beginning of simulation (restored from checkpoints and never reset) (Tick)
simFreq                                  1000000000000                       # The number of ticks per simulated second ((Tick/Second))
hostSeconds                                    718.54                       # Real time elapsed on the host (Second)
hostTickRate                                163208952                       # The number of ticks simulated per host second (ticks/s) ((Tick/Second))
hostMemory                                    2365164                       # Number of bytes of host memory used (Byte)
simInsts                                    100000000                       # Number of instructions simulated (Count)
simOps                                      196790481                       # Number of ops (including micro ops) simulated (Count)
hostInstRate                                   139172                       # Simulator instruction rate (inst/s) ((Count/Second))
hostOpRate                                     273876                       # Simulator op (including micro ops) rate (op/s) ((Count/Second))
system.clk_domain.clock                          1000                       # Clock period in ticks (Tick)
system.cpu.numCycles                        352167481                       # Number of cpu cycles simulated (Cycle)
system.cpu.cpi                               3.521675                       # CPI: cycles per instruction (core level) ((Cycle/Count))
system.cpu.ipc                               0.283956                       # IPC: instructions per cycle (core level) ((Count/Cycle))
system.cpu.numWorkItemsStarted                      0                       # Number of work items this cpu started (Count)
system.cpu.numWorkItemsCompleted                    0                       # Number of work items this cpu completed (Count)
system.cpu.branchPred.lookups                       0                       # Number of BP lookups (Count)
system.cpu.branchPred.condPredicted                 0                       # Number of conditional branches predicted (Count)
system.cpu.branchPred.condIncorrect                 0                       # Number of conditional branches incorrect (Count)
system.cpu.branchPred.BTBLookups                    0                       # Number of BTB lookups (Count)
system.cpu.branchPred.BTBUpdates                    0                       # Number of BTB updates (Count)
system.cpu.branchPred.BTBHits                       0                       # Number of BTB hits (Count)
system.cpu.branchPred.BTBHitRatio                 nan                       # BTB Hit Ratio (Ratio)
system.cpu.branchPred.RASUsed                       0                       # Number of times the RAS was used to get a target. (Count)
system.cpu.branchPred.RASIncorrect                  0                       # Number of incorrect RAS predictions. (Count)
system.cpu.branchPred.indirectLookups               0                       # Number of indirect predictor lookups. (Count)
system.cpu.branchPred.indirectHits                  0                       # Number of indirect target hits. (Count)
system.cpu.branchPred.indirectMisses                0                       # Number of indirect misses. (Count)
system.cpu.branchPred.indirectMispredicted            0                       # Number of mispredicted indirect branches. (Count)
system.cpu.commitStats0.numInsts            100000000                       # Number of instructions committed (thread level) (Count)
system.cpu.commitStats0.numOps              196790481                       # Number of ops (including micro ops) committed (thread level) (Count)
system.cpu.commitStats0.numInstsNotNOP              0                       # Number of instructions committed excluding NOPs or prefetches (Count)
system.cpu.commitStats0.numOpsNotNOP                0                       # Number of Ops (including micro ops) Simulated (Count)
system.cpu.commitStats0.cpi                  3.521675                       # CPI: cycles per instruction (thread level) ((Cycle/Count))
system.cpu.commitStats0.ipc                  0.283956                       # IPC: instructions per cycle (thread level) ((Count/Cycle))
system.cpu.commitStats0.numMemRefs                  0                       # Number of memory references committed (Count)
system.cpu.commitStats0.numFpInsts                  0                       # Number of float instructions (Count)
system.cpu.commitStats0.numIntInsts                 0                       # Number of integer instructions (Count)
system.cpu.commitStats0.numLoadInsts                0                       # Number of load instructions (Count)
system.cpu.commitStats0.numStoreInsts               0                       # Number of store instructions (Count)
system.cpu.commitStats0.numVecInsts                 0                       # Number of vector instructions (Count)
system.cpu.commitStats0.committedInstType::No_OpClass      1721770      0.87%      0.87% # Class of committed instruction. (Count)
system.cpu.commitStats0.committedInstType::IntAlu    152427991     77.46%     78.33% # Class of committed instruction. (Count)
system.cpu.commitStats0.committedInstType::IntMult       237005      0.12%     78.45% # Class of committed instruction. (Count)
system.cpu.commitStats0.committedInstType::IntDiv       695850      0.35%     78.81% # Class of committed instruction. (Count)
system.cpu.commitStats0.committedInstType::FloatAdd        33751      0.02%     78.82% # Class of committed instruction. (Count)
system.cpu.commitStats0.committedInstType::FloatCmp            0      0.00%     78.82% # Class of committed instruction. (Count)
system.cpu.commitStats0.committedInstType::FloatCvt            0      0.00%     78.82% # Class of committed instruction. (Count)
system.cpu.commitStats0.committedInstType::FloatMult            0      0.00%     78.82% # Class of committed instruction. (Count)
system.cpu.commitStats0.committedInstType::FloatMultAcc            0      0.00%     78.82% # Class of committed instruction. (Count)
system.cpu.commitStats0.committedInstType::FloatDiv            0      0.00%     78.82% # Class of committed instruction. (Count)
system.cpu.commitStats0.committedInstType::FloatMisc            0      0.00%     78.82% # Class of committed instruction. (Count)
system.cpu.commitStats0.committedInstType::FloatSqrt            0      0.00%     78.82% # Class of committed instruction. (Count)
system.cpu.commitStats0.committedInstType::SimdAdd        12022      0.01%     78.83% # Class of committed instruction. (Count)
system.cpu.commitStats0.committedInstType::SimdAddAcc            0      0.00%     78.83% # Class of committed instruction. (Count)
system.cpu.commitStats0.committedInstType::SimdAlu        44665      0.02%     78.85% # Class of committed instruction. (Count)
system.cpu.commitStats0.committedInstType::SimdCmp           60      0.00%     78.85% # Class of committed instruction. (Count)
system.cpu.commitStats0.committedInstType::SimdCvt        37780      0.02%     78.87% # Class of committed instruction. (Count)
system.cpu.commitStats0.committedInstType::SimdMisc       173887      0.09%     78.96% # Class of committed instruction. (Count)
system.cpu.commitStats0.committedInstType::SimdMult            0      0.00%     78.96% # Class of committed instruction. (Count)
system.cpu.commitStats0.committedInstType::SimdMultAcc            0      0.00%     78.96% # Class of committed instruction. (Count)
system.cpu.commitStats0.committedInstType::SimdMatMultAcc            0      0.00%     78.96% # Class of committed instruction. (Count)
system.cpu.commitStats0.committedInstType::SimdShift          811      0.00%     78.96% # Class of committed instruction. (Count)
system.cpu.commitStats0.committedInstType::SimdShiftAcc            0      0.00%     78.96% # Class of committed instruction. (Count)
system.cpu.commitStats0.committedInstType::SimdDiv            0      0.00%     78.96% # Class of committed instruction. (Count)
system.cpu.commitStats0.committedInstType::SimdSqrt            0      0.00%     78.96% # Class of committed instruction. (Count)
system.cpu.commitStats0.committedInstType::SimdFloatAdd            0      0.00%     78.96% # Class of committed instruction. (Count)
system.cpu.commitStats0.committedInstType::SimdFloatAlu            0      0.00%     78.96% # Class of committed instruction. (Count)
system.cpu.commitStats0.committedInstType::SimdFloatCmp            0      0.00%     78.96% # Class of committed instruction. (Count)
system.cpu.commitStats0.committedInstType::SimdFloatCvt         1461      0.00%     78.96% # Class of committed instruction. (Count)
system.cpu.commitStats0.committedInstType::SimdFloatDiv            0      0.00%     78.96% # Class of committed instruction. (Count)
system.cpu.commitStats0.committedInstType::SimdFloatMisc            0      0.00%     78.96% # Class of committed instruction. (Count)
system.cpu.commitStats0.committedInstType::SimdFloatMult          487      0.00%     78.96% # Class of committed instruction. (Count)
system.cpu.commitStats0.committedInstType::SimdFloatMultAcc            0      0.00%     78.96% # Class of committed instruction. (Count)
system.cpu.commitStats0.committedInstType::SimdFloatMatMultAcc            0      0.00%     78.96% # Class of committed instruction. (Count)
system.cpu.commitStats0.committedInstType::SimdFloatSqrt            0      0.00%     78.96% # Class of committed instruction. (Count)
system.cpu.commitStats0.committedInstType::SimdReduceAdd            0      0.00%     78.96% # Class of committed instruction. (Count)
system.cpu.commitStats0.committedInstType::SimdReduceAlu            0      0.00%     78.96% # Class of committed instruction. (Count)
system.cpu.commitStats0.committedInstType::SimdReduceCmp            0      0.00%     78.96% # Class of committed instruction. (Count)
system.cpu.commitStats0.committedInstType::SimdFloatReduceAdd            0      0.00%     78.96% # Class of committed instruction. (Count)
system.cpu.commitStats0.committedInstType::SimdFloatReduceCmp            0      0.00%     78.96% # Class of committed instruction. (Count)
system.cpu.commitStats0.committedInstType::SimdAes            0      0.00%     78.96% # Class of committed instruction. (Count)
system.cpu.commitStats0.committedInstType::SimdAesMix            0      0.00%     78.96% # Class of committed instruction. (Count)
system.cpu.commitStats0.committedInstType::SimdSha1Hash            0      0.00%     78.96% # Class of committed instruction. (Count)
system.cpu.commitStats0.committedInstType::SimdSha1Hash2            0      0.00%     78.96% # Class of committed instruction. (Count)
system.cpu.commitStats0.committedInstType::SimdSha256Hash            0      0.00%     78.96% # Class of committed instruction. (Count)
system.cpu.commitStats0.committedInstType::SimdSha256Hash2            0      0.00%     78.96% # Class of committed instruction. (Count)
system.cpu.commitStats0.committedInstType::SimdShaSigma2            0      0.00%     78.96% # Class of committed instruction. (Count)
system.cpu.commitStats0.committedInstType::SimdShaSigma3            0      0.00%     78.96% # Class of committed instruction. (Count)
system.cpu.commitStats0.committedInstType::SimdPredAlu            0      0.00%     78.96% # Class of committed instruction. (Count)
system.cpu.commitStats0.committedInstType::Matrix            0      0.00%     78.96% # Class of committed instruction. (Count)
system.cpu.commitStats0.committedInstType::MatrixMov            0      0.00%     78.96% # Class of committed instruction. (Count)
system.cpu.commitStats0.committedInstType::MatrixOP            0      0.00%     78.96% # Class of committed instruction. (Count)
system.cpu.commitStats0.committedInstType::MemRead     27019844     13.73%     92.69% # Class of committed instruction. (Count)
system.cpu.commitStats0.committedInstType::MemWrite     13875396      7.05%     99.74% # Class of committed instruction. (Count)
system.cpu.commitStats0.committedInstType::FloatMemRead        84048      0.04%     99.78% # Class of committed instruction. (Count)
system.cpu.commitStats0.committedInstType::FloatMemWrite       423653      0.22%    100.00% # Class of committed instruction. (Count)
system.cpu.commitStats0.committedInstType::IprAccess            0      0.00%    100.00% # Class of committed instruction. (Count)
system.cpu.commitStats0.committedInstType::InstPrefetch            0      0.00%    100.00% # Class of committed instruction. (Count)
system.cpu.commitStats0.committedInstType::VectorUnitStrideLoad            0      0.00%    100.00% # Class of committed instruction. (Count)
system.cpu.commitStats0.committedInstType::VectorUnitStrideStore            0      0.00%    100.00% # Class of committed instruction. (Count)
system.cpu.commitStats0.committedInstType::VectorUnitStrideMaskLoad            0      0.00%    100.00% # Class of committed instruction. (Count)
system.cpu.commitStats0.committedInstType::VectorUnitStrideMaskStore            0      0.00%    100.00% # Class of committed instruction. (Count)
system.cpu.commitStats0.committedInstType::VectorStridedLoad            0      0.00%    100.00% # Class of committed instruction. (Count)
system.cpu.commitStats0.committedInstType::VectorStridedStore            0      0.00%    100.00% # Class of committed instruction. (Count)
system.cpu.commitStats0.committedInstType::VectorIndexedLoad            0      0.00%    100.00% # Class of committed instruction. (Count)
system.cpu.commitStats0.committedInstType::VectorIndexedStore            0      0.00%    100.00% # Class of committed instruction. (Count)
system.cpu.commitStats0.committedInstType::VectorUnitStrideFaultOnlyFirstLoad            0      0.00%    100.00% # Class of committed instruction. (Count)
system.cpu.commitStats0.committedInstType::VectorWholeRegisterLoad            0      0.00%    100.00% # Class of committed instruction. (Count)
system.cpu.commitStats0.committedInstType::VectorWholeRegisterStore            0      0.00%    100.00% # Class of committed instruction. (Count)
system.cpu.commitStats0.committedInstType::VectorIntegerArith            0      0.00%    100.00% # Class of committed instruction. (Count)
system.cpu.commitStats0.committedInstType::VectorFloatArith            0      0.00%    100.00% # Class of committed instruction. (Count)
system.cpu.commitStats0.committedInstType::VectorFloatConvert            0      0.00%    100.00% # Class of committed instruction. (Count)
system.cpu.commitStats0.committedInstType::VectorIntegerReduce            0      0.00%    100.00% # Class of committed instruction. (Count)
system.cpu.commitStats0.committedInstType::VectorFloatReduce            0      0.00%    100.00% # Class of committed instruction. (Count)
system.cpu.commitStats0.committedInstType::VectorMisc            0      0.00%    100.00% # Class of committed instruction. (Count)
system.cpu.commitStats0.committedInstType::VectorIntegerExtension            0      0.00%    100.00% # Class of committed instruction. (Count)
system.cpu.commitStats0.committedInstType::VectorConfig            0      0.00%    100.00% # Class of committed instruction. (Count)
system.cpu.commitStats0.committedInstType::total    196790481                       # Class of committed instruction. (Count)
system.cpu.dcache.demandHits::cpu.data       45369015                       # number of demand (read+write) hits (Count)
system.cpu.dcache.demandHits::total          45369015                       # number of demand (read+write) hits (Count)
system.cpu.dcache.overallHits::cpu.data      45369183                       # number of overall hits (Count)
system.cpu.dcache.overallHits::total         45369183                       # number of overall hits (Count)
system.cpu.dcache.demandMisses::cpu.data       980020                       # number of demand (read+write) misses (Count)
system.cpu.dcache.demandMisses::total          980020                       # number of demand (read+write) misses (Count)
system.cpu.dcache.overallMisses::cpu.data       983284                       # number of overall misses (Count)
system.cpu.dcache.overallMisses::total         983284                       # number of overall misses (Count)
system.cpu.dcache.demandMissLatency::cpu.data  21528891891                       # number of demand (read+write) miss ticks (Tick)
system.cpu.dcache.demandMissLatency::total  21528891891                       # number of demand (read+write) miss ticks (Tick)
system.cpu.dcache.overallMissLatency::cpu.data  21528891891                       # number of overall miss ticks (Tick)
system.cpu.dcache.overallMissLatency::total  21528891891                       # number of overall miss ticks (Tick)
system.cpu.dcache.demandAccesses::cpu.data     46349035                       # number of demand (read+write) accesses (Count)
system.cpu.dcache.demandAccesses::total      46349035                       # number of demand (read+write) accesses (Count)
system.cpu.dcache.overallAccesses::cpu.data     46352467                       # number of overall (read+write) accesses (Count)
system.cpu.dcache.overallAccesses::total     46352467                       # number of overall (read+write) accesses (Count)
system.cpu.dcache.demandMissRate::cpu.data     0.021144                       # miss rate for demand accesses (Ratio)
system.cpu.dcache.demandMissRate::total      0.021144                       # miss rate for demand accesses (Ratio)
system.cpu.dcache.overallMissRate::cpu.data     0.021213                       # miss rate for overall accesses (Ratio)
system.cpu.dcache.overallMissRate::total     0.021213                       # miss rate for overall accesses (Ratio)
system.cpu.dcache.demandAvgMissLatency::cpu.data 21967.808709                       # average overall miss latency in ticks ((Tick/Count))
system.cpu.dcache.demandAvgMissLatency::total 21967.808709                       # average overall miss latency in ticks ((Tick/Count))
system.cpu.dcache.overallAvgMissLatency::cpu.data 21894.886819                       # average overall miss latency ((Tick/Count))
system.cpu.dcache.overallAvgMissLatency::total 21894.886819                       # average overall miss latency ((Tick/Count))
system.cpu.dcache.blockedCycles::no_mshrs           24                       # number of cycles access was blocked (Cycle)
system.cpu.dcache.blockedCycles::no_targets            0                       # number of cycles access was blocked (Cycle)
system.cpu.dcache.blockedCauses::no_mshrs            1                       # number of times access was blocked (Count)
system.cpu.dcache.blockedCauses::no_targets            0                       # number of times access was blocked (Count)
system.cpu.dcache.avgBlocked::no_mshrs             24                       # average number of cycles each access was blocked ((Cycle/Count))
system.cpu.dcache.avgBlocked::no_targets          nan                       # average number of cycles each access was blocked ((Cycle/Count))
system.cpu.dcache.writebacks::writebacks       814058                       # number of writebacks (Count)
system.cpu.dcache.writebacks::total            814058                       # number of writebacks (Count)
system.cpu.dcache.demandMshrHits::cpu.data       124798                       # number of demand (read+write) MSHR hits (Count)
system.cpu.dcache.demandMshrHits::total        124798                       # number of demand (read+write) MSHR hits (Count)
system.cpu.dcache.overallMshrHits::cpu.data       124798                       # number of overall MSHR hits (Count)
system.cpu.dcache.overallMshrHits::total       124798                       # number of overall MSHR hits (Count)
system.cpu.dcache.demandMshrMisses::cpu.data       855222                       # number of demand (read+write) MSHR misses (Count)
system.cpu.dcache.demandMshrMisses::total       855222                       # number of demand (read+write) MSHR misses (Count)
system.cpu.dcache.overallMshrMisses::cpu.data       858486                       # number of overall MSHR misses (Count)
system.cpu.dcache.overallMshrMisses::total       858486                       # number of overall MSHR misses (Count)
system.cpu.dcache.demandMshrMissLatency::cpu.data  14325266061                       # number of demand (read+write) MSHR miss ticks (Tick)
system.cpu.dcache.demandMshrMissLatency::total  14325266061                       # number of demand (read+write) MSHR miss ticks (Tick)
system.cpu.dcache.overallMshrMissLatency::cpu.data  14510424384                       # number of overall MSHR miss ticks (Tick)
system.cpu.dcache.overallMshrMissLatency::total  14510424384                       # number of overall MSHR miss ticks (Tick)
system.cpu.dcache.demandMshrMissRate::cpu.data     0.018452                       # mshr miss ratio for demand accesses (Ratio)
system.cpu.dcache.demandMshrMissRate::total     0.018452                       # mshr miss ratio for demand accesses (Ratio)
system.cpu.dcache.overallMshrMissRate::cpu.data     0.018521                       # mshr miss ratio for overall accesses (Ratio)
system.cpu.dcache.overallMshrMissRate::total     0.018521                       # mshr miss ratio for overall accesses (Ratio)
system.cpu.dcache.demandAvgMshrMissLatency::cpu.data 16750.347934                       # average overall mshr miss latency ((Tick/Count))
system.cpu.dcache.demandAvgMshrMissLatency::total 16750.347934                       # average overall mshr miss latency ((Tick/Count))
system.cpu.dcache.overallAvgMshrMissLatency::cpu.data 16902.342477                       # average overall mshr miss latency ((Tick/Count))
system.cpu.dcache.overallAvgMshrMissLatency::total 16902.342477                       # average overall mshr miss latency ((Tick/Count))
system.cpu.dcache.replacements                 857490                       # number of replacements (Count)
system.cpu.dcache.LockedRMWReadReq.hits::cpu.data         2105                       # number of LockedRMWReadReq hits (Count)
system.cpu.dcache.LockedRMWReadReq.hits::total         2105                       # number of LockedRMWReadReq hits (Count)
system.cpu.dcache.LockedRMWReadReq.misses::cpu.data           28                       # number of LockedRMWReadReq misses (Count)
system.cpu.dcache.LockedRMWReadReq.misses::total           28                       # number of LockedRMWReadReq misses (Count)
system.cpu.dcache.LockedRMWReadReq.missLatency::cpu.data       326673                       # number of LockedRMWReadReq miss ticks (Tick)
system.cpu.dcache.LockedRMWReadReq.missLatency::total       326673                       # number of LockedRMWReadReq miss ticks (Tick)
system.cpu.dcache.LockedRMWReadReq.accesses::cpu.data         2133                       # number of LockedRMWReadReq accesses(hits+misses) (Count)
system.cpu.dcache.LockedRMWReadReq.accesses::total         2133                       # number of LockedRMWReadReq accesses(hits+misses) (Count)
system.cpu.dcache.LockedRMWReadReq.missRate::cpu.data     0.013127                       # miss rate for LockedRMWReadReq accesses (Ratio)
system.cpu.dcache.LockedRMWReadReq.missRate::total     0.013127                       # miss rate for LockedRMWReadReq accesses (Ratio)
system.cpu.dcache.LockedRMWReadReq.avgMissLatency::cpu.data 11666.892857                       # average LockedRMWReadReq miss latency ((Tick/Count))
system.cpu.dcache.LockedRMWReadReq.avgMissLatency::total 11666.892857                       # average LockedRMWReadReq miss latency ((Tick/Count))
system.cpu.dcache.LockedRMWReadReq.mshrMisses::cpu.data           28                       # number of LockedRMWReadReq MSHR misses (Count)
system.cpu.dcache.LockedRMWReadReq.mshrMisses::total           28                       # number of LockedRMWReadReq MSHR misses (Count)
system.cpu.dcache.LockedRMWReadReq.mshrMissLatency::cpu.data      3466530                       # number of LockedRMWReadReq MSHR miss ticks (Tick)
system.cpu.dcache.LockedRMWReadReq.mshrMissLatency::total      3466530                       # number of LockedRMWReadReq MSHR miss ticks (Tick)
system.cpu.dcache.LockedRMWReadReq.mshrMissRate::cpu.data     0.013127                       # mshr miss rate for LockedRMWReadReq accesses (Ratio)
system.cpu.dcache.LockedRMWReadReq.mshrMissRate::total     0.013127                       # mshr miss rate for LockedRMWReadReq accesses (Ratio)
system.cpu.dcache.LockedRMWReadReq.avgMshrMissLatency::cpu.data 123804.642857                       # average LockedRMWReadReq mshr miss latency ((Tick/Count))
system.cpu.dcache.LockedRMWReadReq.avgMshrMissLatency::total 123804.642857                       # average LockedRMWReadReq mshr miss latency ((Tick/Count))
system.cpu.dcache.LockedRMWWriteReq.hits::cpu.data         2133                       # number of LockedRMWWriteReq hits (Count)
system.cpu.dcache.LockedRMWWriteReq.hits::total         2133                       # number of LockedRMWWriteReq hits (Count)
system.cpu.dcache.LockedRMWWriteReq.accesses::cpu.data         2133                       # number of LockedRMWWriteReq accesses(hits+misses) (Count)
system.cpu.dcache.LockedRMWWriteReq.accesses::total         2133                       # number of LockedRMWWriteReq accesses(hits+misses) (Count)
system.cpu.dcache.ReadReq.hits::cpu.data     31328614                       # number of ReadReq hits (Count)
system.cpu.dcache.ReadReq.hits::total        31328614                       # number of ReadReq hits (Count)
system.cpu.dcache.ReadReq.misses::cpu.data       724662                       # number of ReadReq misses (Count)
system.cpu.dcache.ReadReq.misses::total        724662                       # number of ReadReq misses (Count)
system.cpu.dcache.ReadReq.missLatency::cpu.data   7345070577                       # number of ReadReq miss ticks (Tick)
system.cpu.dcache.ReadReq.missLatency::total   7345070577                       # number of ReadReq miss ticks (Tick)
system.cpu.dcache.ReadReq.accesses::cpu.data     32053276                       # number of ReadReq accesses(hits+misses) (Count)
system.cpu.dcache.ReadReq.accesses::total     32053276                       # number of ReadReq accesses(hits+misses) (Count)
system.cpu.dcache.ReadReq.missRate::cpu.data     0.022608                       # miss rate for ReadReq accesses (Ratio)
system.cpu.dcache.ReadReq.missRate::total     0.022608                       # miss rate for ReadReq accesses (Ratio)
system.cpu.dcache.ReadReq.avgMissLatency::cpu.data 10135.857237                       # average ReadReq miss latency ((Tick/Count))
system.cpu.dcache.ReadReq.avgMissLatency::total 10135.857237                       # average ReadReq miss latency ((Tick/Count))
system.cpu.dcache.ReadReq.mshrHits::cpu.data        14540                       # number of ReadReq MSHR hits (Count)
system.cpu.dcache.ReadReq.mshrHits::total        14540                       # number of ReadReq MSHR hits (Count)
system.cpu.dcache.ReadReq.mshrMisses::cpu.data       710122                       # number of ReadReq MSHR misses (Count)
system.cpu.dcache.ReadReq.mshrMisses::total       710122                       # number of ReadReq MSHR misses (Count)
system.cpu.dcache.ReadReq.mshrMissLatency::cpu.data   6727952646                       # number of ReadReq MSHR miss ticks (Tick)
system.cpu.dcache.ReadReq.mshrMissLatency::total   6727952646                       # number of ReadReq MSHR miss ticks (Tick)
system.cpu.dcache.ReadReq.mshrMissRate::cpu.data     0.022154                       # mshr miss rate for ReadReq accesses (Ratio)
system.cpu.dcache.ReadReq.mshrMissRate::total     0.022154                       # mshr miss rate for ReadReq accesses (Ratio)
system.cpu.dcache.ReadReq.avgMshrMissLatency::cpu.data  9474.361653                       # average ReadReq mshr miss latency ((Tick/Count))
system.cpu.dcache.ReadReq.avgMshrMissLatency::total  9474.361653                       # average ReadReq mshr miss latency ((Tick/Count))
system.cpu.dcache.SoftPFReq.hits::cpu.data          168                       # number of SoftPFReq hits (Count)
system.cpu.dcache.SoftPFReq.hits::total           168                       # number of SoftPFReq hits (Count)
system.cpu.dcache.SoftPFReq.misses::cpu.data         3264                       # number of SoftPFReq misses (Count)
system.cpu.dcache.SoftPFReq.misses::total         3264                       # number of SoftPFReq misses (Count)
system.cpu.dcache.SoftPFReq.accesses::cpu.data         3432                       # number of SoftPFReq accesses(hits+misses) (Count)
system.cpu.dcache.SoftPFReq.accesses::total         3432                       # number of SoftPFReq accesses(hits+misses) (Count)
system.cpu.dcache.SoftPFReq.missRate::cpu.data     0.951049                       # miss rate for SoftPFReq accesses (Ratio)
system.cpu.dcache.SoftPFReq.missRate::total     0.951049                       # miss rate for SoftPFReq accesses (Ratio)
system.cpu.dcache.SoftPFReq.mshrMisses::cpu.data         3264                       # number of SoftPFReq MSHR misses (Count)
system.cpu.dcache.SoftPFReq.mshrMisses::total         3264                       # number of SoftPFReq MSHR misses (Count)
system.cpu.dcache.SoftPFReq.mshrMissLatency::cpu.data    185158323                       # number of SoftPFReq MSHR miss ticks (Tick)
system.cpu.dcache.SoftPFReq.mshrMissLatency::total    185158323                       # number of SoftPFReq MSHR miss ticks (Tick)
system.cpu.dcache.SoftPFReq.mshrMissRate::cpu.data     0.951049                       # mshr miss rate for SoftPFReq accesses (Ratio)
system.cpu.dcache.SoftPFReq.mshrMissRate::total     0.951049                       # mshr miss rate for SoftPFReq accesses (Ratio)
system.cpu.dcache.SoftPFReq.avgMshrMissLatency::cpu.data 56727.427390                       # average SoftPFReq mshr miss latency ((Tick/Count))
system.cpu.dcache.SoftPFReq.avgMshrMissLatency::total 56727.427390                       # average SoftPFReq mshr miss latency ((Tick/Count))
system.cpu.dcache.WriteReq.hits::cpu.data     14040401                       # number of WriteReq hits (Count)
system.cpu.dcache.WriteReq.hits::total       14040401                       # number of WriteReq hits (Count)
system.cpu.dcache.WriteReq.misses::cpu.data       255358                       # number of WriteReq misses (Count)
system.cpu.dcache.WriteReq.misses::total       255358                       # number of WriteReq misses (Count)
system.cpu.dcache.WriteReq.missLatency::cpu.data  14183821314                       # number of WriteReq miss ticks (Tick)
system.cpu.dcache.WriteReq.missLatency::total  14183821314                       # number of WriteReq miss ticks (Tick)
system.cpu.dcache.WriteReq.accesses::cpu.data     14295759                       # number of WriteReq accesses(hits+misses) (Count)
system.cpu.dcache.WriteReq.accesses::total     14295759                       # number of WriteReq accesses(hits+misses) (Count)
system.cpu.dcache.WriteReq.missRate::cpu.data     0.017863                       # miss rate for WriteReq accesses (Ratio)
system.cpu.dcache.WriteReq.missRate::total     0.017863                       # miss rate for WriteReq accesses (Ratio)
system.cpu.dcache.WriteReq.avgMissLatency::cpu.data 55544.848072                       # average WriteReq miss latency ((Tick/Count))
system.cpu.dcache.WriteReq.avgMissLatency::total 55544.848072                       # average WriteReq miss latency ((Tick/Count))
system.cpu.dcache.WriteReq.mshrHits::cpu.data       110258                       # number of WriteReq MSHR hits (Count)
system.cpu.dcache.WriteReq.mshrHits::total       110258                       # number of WriteReq MSHR hits (Count)
system.cpu.dcache.WriteReq.mshrMisses::cpu.data       145100                       # number of WriteReq MSHR misses (Count)
system.cpu.dcache.WriteReq.mshrMisses::total       145100                       # number of WriteReq MSHR misses (Count)
system.cpu.dcache.WriteReq.mshrMissLatency::cpu.data   7597313415                       # number of WriteReq MSHR miss ticks (Tick)
system.cpu.dcache.WriteReq.mshrMissLatency::total   7597313415                       # number of WriteReq MSHR miss ticks (Tick)
system.cpu.dcache.WriteReq.mshrMissRate::cpu.data     0.010150                       # mshr miss rate for WriteReq accesses (Ratio)
system.cpu.dcache.WriteReq.mshrMissRate::total     0.010150                       # mshr miss rate for WriteReq accesses (Ratio)
system.cpu.dcache.WriteReq.avgMshrMissLatency::cpu.data 52359.155169                       # average WriteReq mshr miss latency ((Tick/Count))
system.cpu.dcache.WriteReq.avgMshrMissLatency::total 52359.155169                       # average WriteReq mshr miss latency ((Tick/Count))
system.cpu.dcache.power_state.pwrStateResidencyTicks::UNDEFINED 117271771173                       # Cumulative time (in ticks) in various power states (Tick)
system.cpu.dcache.tags.tagsInUse          1020.477193                       # Average ticks per tags in use ((Tick/Count))
system.cpu.dcache.tags.totalRefs             46231935                       # Total number of references to valid blocks. (Count)
system.cpu.dcache.tags.sampledRefs             858514                       # Sample count of references to valid blocks. (Count)
system.cpu.dcache.tags.avgRefs              53.851114                       # Average number of references to valid blocks. ((Count/Count))
system.cpu.dcache.tags.warmupTick              165168                       # The tick when the warmup percentage was hit. (Tick)
system.cpu.dcache.tags.occupancies::cpu.data  1020.477193                       # Average occupied blocks per tick, per requestor ((Count/Tick))
system.cpu.dcache.tags.avgOccs::cpu.data     0.996560                       # Average percentage of cache occupancy ((Ratio/Tick))
system.cpu.dcache.tags.avgOccs::total        0.996560                       # Average percentage of cache occupancy ((Ratio/Tick))
system.cpu.dcache.tags.occupanciesTaskId::1024         1024                       # Occupied blocks per task id (Count)
system.cpu.dcache.tags.ageTaskId_1024::0           34                       # Occupied blocks per task id, per block age (Count)
system.cpu.dcache.tags.ageTaskId_1024::1          342                       # Occupied blocks per task id, per block age (Count)
system.cpu.dcache.tags.ageTaskId_1024::2          621                       # Occupied blocks per task id, per block age (Count)
system.cpu.dcache.tags.ageTaskId_1024::3           26                       # Occupied blocks per task id, per block age (Count)
system.cpu.dcache.tags.ageTaskId_1024::4            1                       # Occupied blocks per task id, per block age (Count)
system.cpu.dcache.tags.ratioOccsTaskId::1024            1                       # Ratio of occupied blocks and all blocks, per task id (Ratio)
system.cpu.dcache.tags.tagAccesses           93571980                       # Number of tag accesses (Count)
system.cpu.dcache.tags.dataAccesses          93571980                       # Number of data accesses (Count)
system.cpu.dcache.tags.power_state.pwrStateResidencyTicks::UNDEFINED 117271771173                       # Cumulative time (in ticks) in various power states (Tick)
system.cpu.dtb_walker_cache.blockedCycles::no_mshrs            0                       # number of cycles access was blocked (Cycle)
system.cpu.dtb_walker_cache.blockedCycles::no_targets            0                       # number of cycles access was blocked (Cycle)
system.cpu.dtb_walker_cache.blockedCauses::no_mshrs            0                       # number of times access was blocked (Count)
system.cpu.dtb_walker_cache.blockedCauses::no_targets            0                       # number of times access was blocked (Count)
system.cpu.dtb_walker_cache.avgBlocked::no_mshrs          nan                       # average number of cycles each access was blocked ((Cycle/Count))
system.cpu.dtb_walker_cache.avgBlocked::no_targets          nan                       # average number of cycles each access was blocked ((Cycle/Count))
system.cpu.dtb_walker_cache.replacements            0                       # number of replacements (Count)
system.cpu.dtb_walker_cache.power_state.pwrStateResidencyTicks::UNDEFINED 117271771173                       # Cumulative time (in ticks) in various power states (Tick)
system.cpu.dtb_walker_cache.tags.tagsInUse            0                       # Average ticks per tags in use ((Tick/Count))
system.cpu.dtb_walker_cache.tags.totalRefs            0                       # Total number of references to valid blocks. (Count)
system.cpu.dtb_walker_cache.tags.sampledRefs            0                       # Sample count of references to valid blocks. (Count)
system.cpu.dtb_walker_cache.tags.avgRefs          nan                       # Average number of references to valid blocks. ((Count/Count))
system.cpu.dtb_walker_cache.tags.warmupTick            0                       # The tick when the warmup percentage was hit. (Tick)
system.cpu.dtb_walker_cache.tags.tagAccesses            0                       # Number of tag accesses (Count)
system.cpu.dtb_walker_cache.tags.dataAccesses            0                       # Number of data accesses (Count)
system.cpu.dtb_walker_cache.tags.power_state.pwrStateResidencyTicks::UNDEFINED 117271771173                       # Cumulative time (in ticks) in various power states (Tick)
system.cpu.executeStats0.numInsts                   0                       # Number of executed instructions (Count)
system.cpu.executeStats0.numNop                     0                       # Number of nop insts executed (Count)
system.cpu.executeStats0.numBranches                0                       # Number of branches executed (Count)
system.cpu.executeStats0.numLoadInsts               0                       # Number of load instructions executed (Count)
system.cpu.executeStats0.numStoreInsts              0                       # Number of stores executed (Count)
system.cpu.executeStats0.instRate                   0                       # Inst execution rate ((Count/Cycle))
system.cpu.executeStats0.numFpRegWrites             0                       # Number of times the floating registers were written (Count)
system.cpu.executeStats0.numMemRefs                 0                       # Number of memory refs (Count)
system.cpu.executeStats0.numVecAluAccesses            0                       # Number of vector alu accesses (Count)
system.cpu.executeStats0.numDiscardedOps     40950821                       # Number of ops (including micro ops) which were discarded before commit (Count)
system.cpu.fetch2.intInstructions                 115                       # Number of integer instructions successfully decoded (Count)
system.cpu.fetch2.fpInstructions                    0                       # Number of floating point instructions successfully decoded (Count)
system.cpu.fetch2.vecInstructions                   0                       # Number of SIMD instructions successfully decoded (Count)
system.cpu.fetch2.loadInstructions                  0                       # Number of memory load instructions successfully decoded (Count)
system.cpu.fetch2.storeInstructions                 0                       # Number of memory store instructions successfully decoded (Count)
system.cpu.fetch2.amoInstructions                   0                       # Number of memory atomic instructions successfully decoded (Count)
system.cpu.fetchStats0.numInsts                     0                       # Number of instructions fetched (thread level) (Count)
system.cpu.fetchStats0.numOps                       0                       # Number of ops (including micro ops) fetched (thread level) (Count)
system.cpu.fetchStats0.fetchRate                    0                       # Number of inst fetches per cycle ((Count/Cycle))
system.cpu.fetchStats0.branchRate                   0                       # Number of branch fetches per cycle (Ratio)
system.cpu.fetchStats0.numFetchSuspends             0                       # Number of times Execute suspended instruction fetching (Count)
system.cpu.icache.demandHits::cpu.inst       39061858                       # number of demand (read+write) hits (Count)
system.cpu.icache.demandHits::total          39061858                       # number of demand (read+write) hits (Count)
system.cpu.icache.overallHits::cpu.inst      39061858                       # number of overall hits (Count)
system.cpu.icache.overallHits::total         39061858                       # number of overall hits (Count)
system.cpu.icache.demandMisses::cpu.inst      1142101                       # number of demand (read+write) misses (Count)
system.cpu.icache.demandMisses::total         1142101                       # number of demand (read+write) misses (Count)
system.cpu.icache.overallMisses::cpu.inst      1142101                       # number of overall misses (Count)
system.cpu.icache.overallMisses::total        1142101                       # number of overall misses (Count)
system.cpu.icache.demandMissLatency::cpu.inst  10616713326                       # number of demand (read+write) miss ticks (Tick)
system.cpu.icache.demandMissLatency::total  10616713326                       # number of demand (read+write) miss ticks (Tick)
system.cpu.icache.overallMissLatency::cpu.inst  10616713326                       # number of overall miss ticks (Tick)
system.cpu.icache.overallMissLatency::total  10616713326                       # number of overall miss ticks (Tick)
system.cpu.icache.demandAccesses::cpu.inst     40203959                       # number of demand (read+write) accesses (Count)
system.cpu.icache.demandAccesses::total      40203959                       # number of demand (read+write) accesses (Count)
system.cpu.icache.overallAccesses::cpu.inst     40203959                       # number of overall (read+write) accesses (Count)
system.cpu.icache.overallAccesses::total     40203959                       # number of overall (read+write) accesses (Count)
system.cpu.icache.demandMissRate::cpu.inst     0.028408                       # miss rate for demand accesses (Ratio)
system.cpu.icache.demandMissRate::total      0.028408                       # miss rate for demand accesses (Ratio)
system.cpu.icache.overallMissRate::cpu.inst     0.028408                       # miss rate for overall accesses (Ratio)
system.cpu.icache.overallMissRate::total     0.028408                       # miss rate for overall accesses (Ratio)
system.cpu.icache.demandAvgMissLatency::cpu.inst  9295.774477                       # average overall miss latency in ticks ((Tick/Count))
system.cpu.icache.demandAvgMissLatency::total  9295.774477                       # average overall miss latency in ticks ((Tick/Count))
system.cpu.icache.overallAvgMissLatency::cpu.inst  9295.774477                       # average overall miss latency ((Tick/Count))
system.cpu.icache.overallAvgMissLatency::total  9295.774477                       # average overall miss latency ((Tick/Count))
system.cpu.icache.blockedCycles::no_mshrs            0                       # number of cycles access was blocked (Cycle)
system.cpu.icache.blockedCycles::no_targets            0                       # number of cycles access was blocked (Cycle)
system.cpu.icache.blockedCauses::no_mshrs            0                       # number of times access was blocked (Count)
system.cpu.icache.blockedCauses::no_targets            0                       # number of times access was blocked (Count)
system.cpu.icache.avgBlocked::no_mshrs            nan                       # average number of cycles each access was blocked ((Cycle/Count))
system.cpu.icache.avgBlocked::no_targets          nan                       # average number of cycles each access was blocked ((Cycle/Count))
system.cpu.icache.writebacks::writebacks      1141589                       # number of writebacks (Count)
system.cpu.icache.writebacks::total           1141589                       # number of writebacks (Count)
system.cpu.icache.demandMshrMisses::cpu.inst      1142101                       # number of demand (read+write) MSHR misses (Count)
system.cpu.icache.demandMshrMisses::total      1142101                       # number of demand (read+write) MSHR misses (Count)
system.cpu.icache.overallMshrMisses::cpu.inst      1142101                       # number of overall MSHR misses (Count)
system.cpu.icache.overallMshrMisses::total      1142101                       # number of overall MSHR misses (Count)
system.cpu.icache.demandMshrMissLatency::cpu.inst   9856074060                       # number of demand (read+write) MSHR miss ticks (Tick)
system.cpu.icache.demandMshrMissLatency::total   9856074060                       # number of demand (read+write) MSHR miss ticks (Tick)
system.cpu.icache.overallMshrMissLatency::cpu.inst   9856074060                       # number of overall MSHR miss ticks (Tick)
system.cpu.icache.overallMshrMissLatency::total   9856074060                       # number of overall MSHR miss ticks (Tick)
system.cpu.icache.demandMshrMissRate::cpu.inst     0.028408                       # mshr miss ratio for demand accesses (Ratio)
system.cpu.icache.demandMshrMissRate::total     0.028408                       # mshr miss ratio for demand accesses (Ratio)
system.cpu.icache.overallMshrMissRate::cpu.inst     0.028408                       # mshr miss ratio for overall accesses (Ratio)
system.cpu.icache.overallMshrMissRate::total     0.028408                       # mshr miss ratio for overall accesses (Ratio)
system.cpu.icache.demandAvgMshrMissLatency::cpu.inst  8629.774477                       # average overall mshr miss latency ((Tick/Count))
system.cpu.icache.demandAvgMshrMissLatency::total  8629.774477                       # average overall mshr miss latency ((Tick/Count))
system.cpu.icache.overallAvgMshrMissLatency::cpu.inst  8629.774477                       # average overall mshr miss latency ((Tick/Count))
system.cpu.icache.overallAvgMshrMissLatency::total  8629.774477                       # average overall mshr miss latency ((Tick/Count))
system.cpu.icache.replacements                1141589                       # number of replacements (Count)
system.cpu.icache.ReadReq.hits::cpu.inst     39061858                       # number of ReadReq hits (Count)
system.cpu.icache.ReadReq.hits::total        39061858                       # number of ReadReq hits (Count)
system.cpu.icache.ReadReq.misses::cpu.inst      1142101                       # number of ReadReq misses (Count)
system.cpu.icache.ReadReq.misses::total       1142101                       # number of ReadReq misses (Count)
system.cpu.icache.ReadReq.missLatency::cpu.inst  10616713326                       # number of ReadReq miss ticks (Tick)
system.cpu.icache.ReadReq.missLatency::total  10616713326                       # number of ReadReq miss ticks (Tick)
system.cpu.icache.ReadReq.accesses::cpu.inst     40203959                       # number of ReadReq accesses(hits+misses) (Count)
system.cpu.icache.ReadReq.accesses::total     40203959                       # number of ReadReq accesses(hits+misses) (Count)
system.cpu.icache.ReadReq.missRate::cpu.inst     0.028408                       # miss rate for ReadReq accesses (Ratio)
system.cpu.icache.ReadReq.missRate::total     0.028408                       # miss rate for ReadReq accesses (Ratio)
system.cpu.icache.ReadReq.avgMissLatency::cpu.inst  9295.774477                       # average ReadReq miss latency ((Tick/Count))
system.cpu.icache.ReadReq.avgMissLatency::total  9295.774477                       # average ReadReq miss latency ((Tick/Count))
system.cpu.icache.ReadReq.mshrMisses::cpu.inst      1142101                       # number of ReadReq MSHR misses (Count)
system.cpu.icache.ReadReq.mshrMisses::total      1142101                       # number of ReadReq MSHR misses (Count)
system.cpu.icache.ReadReq.mshrMissLatency::cpu.inst   9856074060                       # number of ReadReq MSHR miss ticks (Tick)
system.cpu.icache.ReadReq.mshrMissLatency::total   9856074060                       # number of ReadReq MSHR miss ticks (Tick)
system.cpu.icache.ReadReq.mshrMissRate::cpu.inst     0.028408                       # mshr miss rate for ReadReq accesses (Ratio)
system.cpu.icache.ReadReq.mshrMissRate::total     0.028408                       # mshr miss rate for ReadReq accesses (Ratio)
system.cpu.icache.ReadReq.avgMshrMissLatency::cpu.inst  8629.774477                       # average ReadReq mshr miss latency ((Tick/Count))
system.cpu.icache.ReadReq.avgMshrMissLatency::total  8629.774477                       # average ReadReq mshr miss latency ((Tick/Count))
system.cpu.icache.power_state.pwrStateResidencyTicks::UNDEFINED 117271771173                       # Cumulative time (in ticks) in various power states (Tick)
system.cpu.icache.tags.tagsInUse           511.523731                       # Average ticks per tags in use ((Tick/Count))
system.cpu.icache.tags.totalRefs             40203959                       # Total number of references to valid blocks. (Count)
system.cpu.icache.tags.sampledRefs            1142101                       # Sample count of references to valid blocks. (Count)
system.cpu.icache.tags.avgRefs              35.201754                       # Average number of references to valid blocks. ((Count/Count))
system.cpu.icache.tags.warmupTick               84249                       # The tick when the warmup percentage was hit. (Tick)
system.cpu.icache.tags.occupancies::cpu.inst   511.523731                       # Average occupied blocks per tick, per requestor ((Count/Tick))
system.cpu.icache.tags.avgOccs::cpu.inst     0.999070                       # Average percentage of cache occupancy ((Ratio/Tick))
system.cpu.icache.tags.avgOccs::total        0.999070                       # Average percentage of cache occupancy ((Ratio/Tick))
system.cpu.icache.tags.occupanciesTaskId::1024          512                       # Occupied blocks per task id (Count)
system.cpu.icache.tags.ageTaskId_1024::1            1                       # Occupied blocks per task id, per block age (Count)
system.cpu.icache.tags.ageTaskId_1024::3           41                       # Occupied blocks per task id, per block age (Count)
system.cpu.icache.tags.ageTaskId_1024::4          470                       # Occupied blocks per task id, per block age (Count)
system.cpu.icache.tags.ratioOccsTaskId::1024            1                       # Ratio of occupied blocks and all blocks, per task id (Ratio)
system.cpu.icache.tags.tagAccesses           81550019                       # Number of tag accesses (Count)
system.cpu.icache.tags.dataAccesses          81550019                       # Number of data accesses (Count)
system.cpu.icache.tags.power_state.pwrStateResidencyTicks::UNDEFINED 117271771173                       # Cumulative time (in ticks) in various power states (Tick)
system.cpu.interrupts.clk_domain.clock           5328                       # Clock period in ticks (Tick)
system.cpu.itb_walker_cache.blockedCycles::no_mshrs            0                       # number of cycles access was blocked (Cycle)
system.cpu.itb_walker_cache.blockedCycles::no_targets            0                       # number of cycles access was blocked (Cycle)
system.cpu.itb_walker_cache.blockedCauses::no_mshrs            0                       # number of times access was blocked (Count)
system.cpu.itb_walker_cache.blockedCauses::no_targets            0                       # number of times access was blocked (Count)
system.cpu.itb_walker_cache.avgBlocked::no_mshrs          nan                       # average number of cycles each access was blocked ((Cycle/Count))
system.cpu.itb_walker_cache.avgBlocked::no_targets          nan                       # average number of cycles each access was blocked ((Cycle/Count))
system.cpu.itb_walker_cache.replacements            0                       # number of replacements (Count)
system.cpu.itb_walker_cache.power_state.pwrStateResidencyTicks::UNDEFINED 117271771173                       # Cumulative time (in ticks) in various power states (Tick)
system.cpu.itb_walker_cache.tags.tagsInUse            0                       # Average ticks per tags in use ((Tick/Count))
system.cpu.itb_walker_cache.tags.totalRefs            0                       # Total number of references to valid blocks. (Count)
system.cpu.itb_walker_cache.tags.sampledRefs            0                       # Sample count of references to valid blocks. (Count)
system.cpu.itb_walker_cache.tags.avgRefs          nan                       # Average number of references to valid blocks. ((Count/Count))
system.cpu.itb_walker_cache.tags.warmupTick            0                       # The tick when the warmup percentage was hit. (Tick)
system.cpu.itb_walker_cache.tags.tagAccesses            0                       # Number of tag accesses (Count)
system.cpu.itb_walker_cache.tags.dataAccesses            0                       # Number of data accesses (Count)
system.cpu.itb_walker_cache.tags.power_state.pwrStateResidencyTicks::UNDEFINED 117271771173                       # Cumulative time (in ticks) in various power states (Tick)
system.cpu.mmu.dtb.rdAccesses                33009224                       # TLB accesses on read requests (Count)
system.cpu.mmu.dtb.wrAccesses                15467800                       # TLB accesses on write requests (Count)
system.cpu.mmu.dtb.rdMisses                    620875                       # TLB misses on read requests (Count)
system.cpu.mmu.dtb.wrMisses                     72009                       # TLB misses on write requests (Count)
system.cpu.mmu.dtb.walker.power_state.pwrStateResidencyTicks::UNDEFINED 117271771173                       # Cumulative time (in ticks) in various power states (Tick)
system.cpu.mmu.itb.rdAccesses                       0                       # TLB accesses on read requests (Count)
system.cpu.mmu.itb.wrAccesses                40203959                       # TLB accesses on write requests (Count)
system.cpu.mmu.itb.rdMisses                         0                       # TLB misses on read requests (Count)
system.cpu.mmu.itb.wrMisses                     25642                       # TLB misses on write requests (Count)
system.cpu.mmu.itb.walker.power_state.pwrStateResidencyTicks::UNDEFINED 117271771173                       # Cumulative time (in ticks) in various power states (Tick)
system.cpu.power_state.pwrStateResidencyTicks::ON 117271771173                       # Cumulative time (in ticks) in various power states (Tick)
system.cpu.thread_0.numInsts                100000000                       # Number of Instructions committed (Count)
system.cpu.thread_0.numOps                  196790481                       # Number of Ops committed (Count)
system.cpu.thread_0.numMemRefs                      0                       # Number of Memory References (Count)
system.cpu.workload.numSyscalls                    83                       # Number of system calls (Count)
system.cpu_clk_domain.clock                       333                       # Clock period in ticks (Tick)
system.cpu_voltage_domain.voltage                   1                       # Voltage in Volts (Volt)
system.l2.demandHits::cpu.inst                1131284                       # number of demand (read+write) hits (Count)
system.l2.demandHits::cpu.data                 745543                       # number of demand (read+write) hits (Count)
system.l2.demandHits::total                   1876827                       # number of demand (read+write) hits (Count)
system.l2.overallHits::cpu.inst               1131284                       # number of overall hits (Count)
system.l2.overallHits::cpu.data                745543                       # number of overall hits (Count)
system.l2.overallHits::total                  1876827                       # number of overall hits (Count)
system.l2.demandMisses::cpu.inst                10817                       # number of demand (read+write) misses (Count)
system.l2.demandMisses::cpu.data               112971                       # number of demand (read+write) misses (Count)
system.l2.demandMisses::total                  123788                       # number of demand (read+write) misses (Count)
system.l2.overallMisses::cpu.inst               10817                       # number of overall misses (Count)
system.l2.overallMisses::cpu.data              112971                       # number of overall misses (Count)
system.l2.overallMisses::total                 123788                       # number of overall misses (Count)
system.l2.demandMissLatency::cpu.inst       800749782                       # number of demand (read+write) miss ticks (Tick)
system.l2.demandMissLatency::cpu.data      8435675880                       # number of demand (read+write) miss ticks (Tick)
system.l2.demandMissLatency::total         9236425662                       # number of demand (read+write) miss ticks (Tick)
system.l2.overallMissLatency::cpu.inst      800749782                       # number of overall miss ticks (Tick)
system.l2.overallMissLatency::cpu.data     8435675880                       # number of overall miss ticks (Tick)
system.l2.overallMissLatency::total        9236425662                       # number of overall miss ticks (Tick)
system.l2.demandAccesses::cpu.inst            1142101                       # number of demand (read+write) accesses (Count)
system.l2.demandAccesses::cpu.data             858514                       # number of demand (read+write) accesses (Count)
system.l2.demandAccesses::total               2000615                       # number of demand (read+write) accesses (Count)
system.l2.overallAccesses::cpu.inst           1142101                       # number of overall (read+write) accesses (Count)
system.l2.overallAccesses::cpu.data            858514                       # number of overall (read+write) accesses (Count)
system.l2.overallAccesses::total              2000615                       # number of overall (read+write) accesses (Count)
system.l2.demandMissRate::cpu.inst           0.009471                       # miss rate for demand accesses (Ratio)
system.l2.demandMissRate::cpu.data           0.131589                       # miss rate for demand accesses (Ratio)
system.l2.demandMissRate::total              0.061875                       # miss rate for demand accesses (Ratio)
system.l2.overallMissRate::cpu.inst          0.009471                       # miss rate for overall accesses (Ratio)
system.l2.overallMissRate::cpu.data          0.131589                       # miss rate for overall accesses (Ratio)
system.l2.overallMissRate::total             0.061875                       # miss rate for overall accesses (Ratio)
system.l2.demandAvgMissLatency::cpu.inst 74026.974392                       # average overall miss latency in ticks ((Tick/Count))
system.l2.demandAvgMissLatency::cpu.data 74671.162334                       # average overall miss latency in ticks ((Tick/Count))
system.l2.demandAvgMissLatency::total    74614.871086                       # average overall miss latency in ticks ((Tick/Count))
system.l2.overallAvgMissLatency::cpu.inst 74026.974392                       # average overall miss latency ((Tick/Count))
system.l2.overallAvgMissLatency::cpu.data 74671.162334                       # average overall miss latency ((Tick/Count))
system.l2.overallAvgMissLatency::total   74614.871086                       # average overall miss latency ((Tick/Count))
system.l2.blockedCycles::no_mshrs                   0                       # number of cycles access was blocked (Cycle)
system.l2.blockedCycles::no_targets                 0                       # number of cycles access was blocked (Cycle)
system.l2.blockedCauses::no_mshrs                   0                       # number of times access was blocked (Count)
system.l2.blockedCauses::no_targets                 0                       # number of times access was blocked (Count)
system.l2.avgBlocked::no_mshrs                    nan                       # average number of cycles each access was blocked ((Cycle/Count))
system.l2.avgBlocked::no_targets                  nan                       # average number of cycles each access was blocked ((Cycle/Count))
system.l2.writebacks::writebacks                76762                       # number of writebacks (Count)
system.l2.writebacks::total                     76762                       # number of writebacks (Count)
system.l2.demandMshrMisses::cpu.inst            10817                       # number of demand (read+write) MSHR misses (Count)
system.l2.demandMshrMisses::cpu.data           112971                       # number of demand (read+write) MSHR misses (Count)
system.l2.demandMshrMisses::total              123788                       # number of demand (read+write) MSHR misses (Count)
system.l2.overallMshrMisses::cpu.inst           10817                       # number of overall MSHR misses (Count)
system.l2.overallMshrMisses::cpu.data          112971                       # number of overall MSHR misses (Count)
system.l2.overallMshrMisses::total             123788                       # number of overall MSHR misses (Count)
system.l2.demandMshrMissLatency::cpu.inst    726905836                       # number of demand (read+write) MSHR miss ticks (Tick)
system.l2.demandMshrMissLatency::cpu.data   7664495837                       # number of demand (read+write) MSHR miss ticks (Tick)
system.l2.demandMshrMissLatency::total     8391401673                       # number of demand (read+write) MSHR miss ticks (Tick)
system.l2.overallMshrMissLatency::cpu.inst    726905836                       # number of overall MSHR miss ticks (Tick)
system.l2.overallMshrMissLatency::cpu.data   7664495837                       # number of overall MSHR miss ticks (Tick)
system.l2.overallMshrMissLatency::total    8391401673                       # number of overall MSHR miss ticks (Tick)
system.l2.demandMshrMissRate::cpu.inst       0.009471                       # mshr miss ratio for demand accesses (Ratio)
system.l2.demandMshrMissRate::cpu.data       0.131589                       # mshr miss ratio for demand accesses (Ratio)
system.l2.demandMshrMissRate::total          0.061875                       # mshr miss ratio for demand accesses (Ratio)
system.l2.overallMshrMissRate::cpu.inst      0.009471                       # mshr miss ratio for overall accesses (Ratio)
system.l2.overallMshrMissRate::cpu.data      0.131589                       # mshr miss ratio for overall accesses (Ratio)
system.l2.overallMshrMissRate::total         0.061875                       # mshr miss ratio for overall accesses (Ratio)
system.l2.demandAvgMshrMissLatency::cpu.inst 67200.317648                       # average overall mshr miss latency ((Tick/Count))
system.l2.demandAvgMshrMissLatency::cpu.data 67844.808287                       # average overall mshr miss latency ((Tick/Count))
system.l2.demandAvgMshrMissLatency::total 67788.490589                       # average overall mshr miss latency ((Tick/Count))
system.l2.overallAvgMshrMissLatency::cpu.inst 67200.317648                       # average overall mshr miss latency ((Tick/Count))
system.l2.overallAvgMshrMissLatency::cpu.data 67844.808287                       # average overall mshr miss latency ((Tick/Count))
system.l2.overallAvgMshrMissLatency::total 67788.490589                       # average overall mshr miss latency ((Tick/Count))
system.l2.replacements                          91329                       # number of replacements (Count)
system.l2.ReadCleanReq.hits::cpu.inst         1131284                       # number of ReadCleanReq hits (Count)
system.l2.ReadCleanReq.hits::total            1131284                       # number of ReadCleanReq hits (Count)
system.l2.ReadCleanReq.misses::cpu.inst         10817                       # number of ReadCleanReq misses (Count)
system.l2.ReadCleanReq.misses::total            10817                       # number of ReadCleanReq misses (Count)
system.l2.ReadCleanReq.missLatency::cpu.inst    800749782                       # number of ReadCleanReq miss ticks (Tick)
system.l2.ReadCleanReq.missLatency::total    800749782                       # number of ReadCleanReq miss ticks (Tick)
system.l2.ReadCleanReq.accesses::cpu.inst      1142101                       # number of ReadCleanReq accesses(hits+misses) (Count)
system.l2.ReadCleanReq.accesses::total        1142101                       # number of ReadCleanReq accesses(hits+misses) (Count)
system.l2.ReadCleanReq.missRate::cpu.inst     0.009471                       # miss rate for ReadCleanReq accesses (Ratio)
system.l2.ReadCleanReq.missRate::total       0.009471                       # miss rate for ReadCleanReq accesses (Ratio)
system.l2.ReadCleanReq.avgMissLatency::cpu.inst 74026.974392                       # average ReadCleanReq miss latency ((Tick/Count))
system.l2.ReadCleanReq.avgMissLatency::total 74026.974392                       # average ReadCleanReq miss latency ((Tick/Count))
system.l2.ReadCleanReq.mshrMisses::cpu.inst        10817                       # number of ReadCleanReq MSHR misses (Count)
system.l2.ReadCleanReq.mshrMisses::total        10817                       # number of ReadCleanReq MSHR misses (Count)
system.l2.ReadCleanReq.mshrMissLatency::cpu.inst    726905836                       # number of ReadCleanReq MSHR miss ticks (Tick)
system.l2.ReadCleanReq.mshrMissLatency::total    726905836                       # number of ReadCleanReq MSHR miss ticks (Tick)
system.l2.ReadCleanReq.mshrMissRate::cpu.inst     0.009471                       # mshr miss rate for ReadCleanReq accesses (Ratio)
system.l2.ReadCleanReq.mshrMissRate::total     0.009471                       # mshr miss rate for ReadCleanReq accesses (Ratio)
system.l2.ReadCleanReq.avgMshrMissLatency::cpu.inst 67200.317648                       # average ReadCleanReq mshr miss latency ((Tick/Count))
system.l2.ReadCleanReq.avgMshrMissLatency::total 67200.317648                       # average ReadCleanReq mshr miss latency ((Tick/Count))
system.l2.ReadExReq.hits::cpu.data              49593                       # number of ReadExReq hits (Count)
system.l2.ReadExReq.hits::total                 49593                       # number of ReadExReq hits (Count)
system.l2.ReadExReq.misses::cpu.data            95962                       # number of ReadExReq misses (Count)
system.l2.ReadExReq.misses::total               95962                       # number of ReadExReq misses (Count)
system.l2.ReadExReq.missLatency::cpu.data   7108588296                       # number of ReadExReq miss ticks (Tick)
system.l2.ReadExReq.missLatency::total     7108588296                       # number of ReadExReq miss ticks (Tick)
system.l2.ReadExReq.accesses::cpu.data         145555                       # number of ReadExReq accesses(hits+misses) (Count)
system.l2.ReadExReq.accesses::total            145555                       # number of ReadExReq accesses(hits+misses) (Count)
system.l2.ReadExReq.missRate::cpu.data       0.659283                       # miss rate for ReadExReq accesses (Ratio)
system.l2.ReadExReq.missRate::total          0.659283                       # miss rate for ReadExReq accesses (Ratio)
system.l2.ReadExReq.avgMissLatency::cpu.data 74077.116942                       # average ReadExReq miss latency ((Tick/Count))
system.l2.ReadExReq.avgMissLatency::total 74077.116942                       # average ReadExReq miss latency ((Tick/Count))
system.l2.ReadExReq.mshrMisses::cpu.data        95962                       # number of ReadExReq MSHR misses (Count)
system.l2.ReadExReq.mshrMisses::total           95962                       # number of ReadExReq MSHR misses (Count)
system.l2.ReadExReq.mshrMissLatency::cpu.data   6453505102                       # number of ReadExReq MSHR miss ticks (Tick)
system.l2.ReadExReq.mshrMissLatency::total   6453505102                       # number of ReadExReq MSHR miss ticks (Tick)
system.l2.ReadExReq.mshrMissRate::cpu.data     0.659283                       # mshr miss rate for ReadExReq accesses (Ratio)
system.l2.ReadExReq.mshrMissRate::total      0.659283                       # mshr miss rate for ReadExReq accesses (Ratio)
system.l2.ReadExReq.avgMshrMissLatency::cpu.data 67250.631521                       # average ReadExReq mshr miss latency ((Tick/Count))
system.l2.ReadExReq.avgMshrMissLatency::total 67250.631521                       # average ReadExReq mshr miss latency ((Tick/Count))
system.l2.ReadSharedReq.hits::cpu.data         695950                       # number of ReadSharedReq hits (Count)
system.l2.ReadSharedReq.hits::total            695950                       # number of ReadSharedReq hits (Count)
system.l2.ReadSharedReq.misses::cpu.data        17009                       # number of ReadSharedReq misses (Count)
system.l2.ReadSharedReq.misses::total           17009                       # number of ReadSharedReq misses (Count)
system.l2.ReadSharedReq.missLatency::cpu.data   1327087584                       # number of ReadSharedReq miss ticks (Tick)
system.l2.ReadSharedReq.missLatency::total   1327087584                       # number of ReadSharedReq miss ticks (Tick)
system.l2.ReadSharedReq.accesses::cpu.data       712959                       # number of ReadSharedReq accesses(hits+misses) (Count)
system.l2.ReadSharedReq.accesses::total        712959                       # number of ReadSharedReq accesses(hits+misses) (Count)
system.l2.ReadSharedReq.missRate::cpu.data     0.023857                       # miss rate for ReadSharedReq accesses (Ratio)
system.l2.ReadSharedReq.missRate::total      0.023857                       # miss rate for ReadSharedReq accesses (Ratio)
system.l2.ReadSharedReq.avgMissLatency::cpu.data 78022.669410                       # average ReadSharedReq miss latency ((Tick/Count))
system.l2.ReadSharedReq.avgMissLatency::total 78022.669410                       # average ReadSharedReq miss latency ((Tick/Count))
system.l2.ReadSharedReq.mshrMisses::cpu.data        17009                       # number of ReadSharedReq MSHR misses (Count)
system.l2.ReadSharedReq.mshrMisses::total        17009                       # number of ReadSharedReq MSHR misses (Count)
system.l2.ReadSharedReq.mshrMissLatency::cpu.data   1210990735                       # number of ReadSharedReq MSHR miss ticks (Tick)
system.l2.ReadSharedReq.mshrMissLatency::total   1210990735                       # number of ReadSharedReq MSHR miss ticks (Tick)
system.l2.ReadSharedReq.mshrMissRate::cpu.data     0.023857                       # mshr miss rate for ReadSharedReq accesses (Ratio)
system.l2.ReadSharedReq.mshrMissRate::total     0.023857                       # mshr miss rate for ReadSharedReq accesses (Ratio)
system.l2.ReadSharedReq.avgMshrMissLatency::cpu.data 71197.056558                       # average ReadSharedReq mshr miss latency ((Tick/Count))
system.l2.ReadSharedReq.avgMshrMissLatency::total 71197.056558                       # average ReadSharedReq mshr miss latency ((Tick/Count))
system.l2.WritebackClean.hits::writebacks      1141002                       # number of WritebackClean hits (Count)
system.l2.WritebackClean.hits::total          1141002                       # number of WritebackClean hits (Count)
system.l2.WritebackClean.accesses::writebacks      1141002                       # number of WritebackClean accesses(hits+misses) (Count)
system.l2.WritebackClean.accesses::total      1141002                       # number of WritebackClean accesses(hits+misses) (Count)
system.l2.WritebackDirty.hits::writebacks       814058                       # number of WritebackDirty hits (Count)
system.l2.WritebackDirty.hits::total           814058                       # number of WritebackDirty hits (Count)
system.l2.WritebackDirty.accesses::writebacks       814058                       # number of WritebackDirty accesses(hits+misses) (Count)
system.l2.WritebackDirty.accesses::total       814058                       # number of WritebackDirty accesses(hits+misses) (Count)
system.l2.power_state.pwrStateResidencyTicks::UNDEFINED 117271771173                       # Cumulative time (in ticks) in various power states (Tick)
system.l2.tags.tagsInUse                 30050.077175                       # Average ticks per tags in use ((Tick/Count))
system.l2.tags.totalRefs                      3999040                       # Total number of references to valid blocks. (Count)
system.l2.tags.sampledRefs                     124097                       # Sample count of references to valid blocks. (Count)
system.l2.tags.avgRefs                      32.225114                       # Average number of references to valid blocks. ((Count/Count))
system.l2.tags.warmupTick                       77000                       # The tick when the warmup percentage was hit. (Tick)
system.l2.tags.occupancies::writebacks      43.152576                       # Average occupied blocks per tick, per requestor ((Count/Tick))
system.l2.tags.occupancies::cpu.inst      2883.698527                       # Average occupied blocks per tick, per requestor ((Count/Tick))
system.l2.tags.occupancies::cpu.data     27123.226072                       # Average occupied blocks per tick, per requestor ((Count/Tick))
system.l2.tags.avgOccs::writebacks           0.001317                       # Average percentage of cache occupancy ((Ratio/Tick))
system.l2.tags.avgOccs::cpu.inst             0.088003                       # Average percentage of cache occupancy ((Ratio/Tick))
system.l2.tags.avgOccs::cpu.data             0.827735                       # Average percentage of cache occupancy ((Ratio/Tick))
system.l2.tags.avgOccs::total                0.917056                       # Average percentage of cache occupancy ((Ratio/Tick))
system.l2.tags.occupanciesTaskId::1024          32768                       # Occupied blocks per task id (Count)
system.l2.tags.ageTaskId_1024::0                    5                       # Occupied blocks per task id, per block age (Count)
system.l2.tags.ageTaskId_1024::1                   96                       # Occupied blocks per task id, per block age (Count)
system.l2.tags.ageTaskId_1024::2                 1228                       # Occupied blocks per task id, per block age (Count)
system.l2.tags.ageTaskId_1024::3                 9596                       # Occupied blocks per task id, per block age (Count)
system.l2.tags.ageTaskId_1024::4                21843                       # Occupied blocks per task id, per block age (Count)
system.l2.tags.ratioOccsTaskId::1024                1                       # Ratio of occupied blocks and all blocks, per task id (Ratio)
system.l2.tags.tagAccesses                   32116417                       # Number of tag accesses (Count)
system.l2.tags.dataAccesses                  32116417                       # Number of data accesses (Count)
system.l2.tags.power_state.pwrStateResidencyTicks::UNDEFINED 117271771173                       # Cumulative time (in ticks) in various power states (Tick)
system.mem_ctrls.avgPriority_writebacks::samples     76762.00                       # Average QoS priority value for accepted requests (Count)
system.mem_ctrls.avgPriority_cpu.inst::samples     10817.00                       # Average QoS priority value for accepted requests (Count)
system.mem_ctrls.avgPriority_cpu.data::samples    112926.00                       # Average QoS priority value for accepted requests (Count)
system.mem_ctrls.priorityMinLatency      0.000000018750                       # per QoS priority minimum request to response latency (Second)
system.mem_ctrls.priorityMaxLatency      0.006396658076                       # per QoS priority maximum request to response latency (Second)
system.mem_ctrls.numReadWriteTurnArounds         4456                       # Number of turnarounds from READ to WRITE (Count)
system.mem_ctrls.numWriteReadTurnArounds         4456                       # Number of turnarounds from WRITE to READ (Count)
system.mem_ctrls.numStayReadState              351799                       # Number of times bus staying in READ state (Count)
system.mem_ctrls.numStayWriteState              72459                       # Number of times bus staying in WRITE state (Count)
system.mem_ctrls.readReqs                      123788                       # Number of read requests accepted (Count)
system.mem_ctrls.writeReqs                      76762                       # Number of write requests accepted (Count)
system.mem_ctrls.readBursts                    123788                       # Number of controller read bursts, including those serviced by the write queue (Count)
system.mem_ctrls.writeBursts                    76762                       # Number of controller write bursts, including those merged in the write queue (Count)
system.mem_ctrls.servicedByWrQ                     45                       # Number of controller read bursts serviced by the write queue (Count)
system.mem_ctrls.mergedWrBursts                     0                       # Number of controller write bursts merged with an existing one (Count)
system.mem_ctrls.neitherReadNorWriteReqs            0                       # Number of requests that are neither read nor write (Count)
system.mem_ctrls.avgRdQLen                       1.01                       # Average read queue length when enqueuing ((Count/Tick))
system.mem_ctrls.avgWrQLen                      22.24                       # Average write queue length when enqueuing ((Count/Tick))
system.mem_ctrls.numRdRetry                         0                       # Number of times read queue was full causing retry (Count)
system.mem_ctrls.numWrRetry                         0                       # Number of times write queue was full causing retry (Count)
system.mem_ctrls.readPktSize::0                     0                       # Read request sizes (log2) (Count)
system.mem_ctrls.readPktSize::1                     0                       # Read request sizes (log2) (Count)
system.mem_ctrls.readPktSize::2                     0                       # Read request sizes (log2) (Count)
system.mem_ctrls.readPktSize::3                     0                       # Read request sizes (log2) (Count)
system.mem_ctrls.readPktSize::4                     0                       # Read request sizes (log2) (Count)
system.mem_ctrls.readPktSize::5                     0                       # Read request sizes (log2) (Count)
system.mem_ctrls.readPktSize::6                123788                       # Read request sizes (log2) (Count)
system.mem_ctrls.writePktSize::0                    0                       # Write request sizes (log2) (Count)
system.mem_ctrls.writePktSize::1                    0                       # Write request sizes (log2) (Count)
system.mem_ctrls.writePktSize::2                    0                       # Write request sizes (log2) (Count)
system.mem_ctrls.writePktSize::3                    0                       # Write request sizes (log2) (Count)
system.mem_ctrls.writePktSize::4                    0                       # Write request sizes (log2) (Count)
[...]
system.mem_ctrls.dram.perBankWrBursts::14         4617                       # Per bank write bursts (Count)
system.mem_ctrls.dram.perBankWrBursts::15         5030                       # Per bank write bursts (Count)
system.mem_ctrls.dram.totQLat              1389411176                       # Total ticks spent queuing (Tick)
system.mem_ctrls.dram.totBusLat             618715000                       # Total ticks spent in databus transfers (Tick)
system.mem_ctrls.dram.totMemAccLat         3709592426                       # Total ticks spent from burst creation until serviced by the DRAM (Tick)
system.mem_ctrls.dram.avgQLat                11228.20                       # Average queueing delay per DRAM burst ((Tick/Count))
system.mem_ctrls.dram.avgBusLat               5000.00                       # Average bus latency per DRAM burst ((Tick/Count))
system.mem_ctrls.dram.avgMemAccLat           29978.20                       # Average memory access latency per DRAM burst ((Tick/Count))
system.mem_ctrls.dram.readRowHits               88589                       # Number of row buffer hits during reads (Count)
system.mem_ctrls.dram.writeRowHits              50523                       # Number of row buffer hits during writes (Count)
system.mem_ctrls.dram.readRowHitRate            71.59                       # Row buffer hit rate for reads (Ratio)
system.mem_ctrls.dram.writeRowHitRate           65.84                       # Row buffer hit rate for writes (Ratio)
system.mem_ctrls.dram.bytesPerActivate::samples        61367                       # Bytes accessed per row activation (Byte)
system.mem_ctrls.dram.bytesPerActivate::mean   209.079668                       # Bytes accessed per row activation (Byte)
system.mem_ctrls.dram.bytesPerActivate::gmean   141.497002                       # Bytes accessed per row activation (Byte)
system.mem_ctrls.dram.bytesPerActivate::stdev   216.216106                       # Bytes accessed per row activation (Byte)
system.mem_ctrls.dram.bytesPerActivate::0-127        26243     42.76%     42.76% # Bytes accessed per row activation (Byte)
system.mem_ctrls.dram.bytesPerActivate::128-255        16947     27.62%     70.38% # Bytes accessed per row activation (Byte)
system.mem_ctrls.dram.bytesPerActivate::256-383         7518     12.25%     82.63% # Bytes accessed per row activation (Byte)
system.mem_ctrls.dram.bytesPerActivate::384-511         4216      6.87%     89.50% # Bytes accessed per row activation (Byte)
system.mem_ctrls.dram.bytesPerActivate::512-639         2341      3.81%     93.32% # Bytes accessed per row activation (Byte)
system.mem_ctrls.dram.bytesPerActivate::640-767         1377      2.24%     95.56% # Bytes accessed per row activation (Byte)
system.mem_ctrls.dram.bytesPerActivate::768-895          808      1.32%     96.88% # Bytes accessed per row activation (Byte)
system.mem_ctrls.dram.bytesPerActivate::896-1023          533      0.87%     97.74% # Bytes accessed per row activation (Byte)
system.mem_ctrls.dram.bytesPerActivate::1024-1151         1384      2.26%    100.00% # Bytes accessed per row activation (Byte)
system.mem_ctrls.dram.bytesPerActivate::total        61367                       # Bytes accessed per row activation (Byte)
system.mem_ctrls.dram.bytesRead               7919552                       # Total bytes read (Byte)
system.mem_ctrls.dram.bytesWritten            4911232                       # Total bytes written (Byte)
system.mem_ctrls.dram.avgRdBW               67.531614                       # Average DRAM read bandwidth in MiBytes/s ((Byte/Second))
system.mem_ctrls.dram.avgWrBW               41.879064                       # Average DRAM write bandwidth in MiBytes/s ((Byte/Second))
system.mem_ctrls.dram.peakBW                 12800.00                       # Theoretical peak bandwidth in MiByte/s ((Byte/Second))
system.mem_ctrls.dram.busUtil                    0.85                       # Data bus utilization in percentage (Ratio)
system.mem_ctrls.dram.busUtilRead                0.53                       # Data bus utilization in percentage for reads (Ratio)
system.mem_ctrls.dram.busUtilWrite               0.33                       # Data bus utilization in percentage for writes (Ratio)
system.mem_ctrls.dram.pageHitRate               69.39                       # Row buffer hit rate, read and write combined (Ratio)
system.mem_ctrls.dram.power_state.pwrStateResidencyTicks::UNDEFINED 117271771173                       # Cumulative time (in ticks) in various power states (Tick)
system.mem_ctrls.dram.rank0.actEnergy       217120260                       # Energy for activate commands per rank (pJ) (Joule)
system.mem_ctrls.dram.rank0.preEnergy       115394565                       # Energy for precharge commands per rank (pJ) (Joule)
system.mem_ctrls.dram.rank0.readEnergy      440095320                       # Energy for read commands per rank (pJ) (Joule)
system.mem_ctrls.dram.rank0.writeEnergy     197911080                       # Energy for write commands per rank (pJ) (Joule)
system.mem_ctrls.dram.rank0.refreshEnergy 9257093040.000002                       # Energy for refresh commands per rank (pJ) (Joule)
system.mem_ctrls.dram.rank0.actBackEnergy  21628023570                       # Energy for active background per rank (pJ) (Joule)
system.mem_ctrls.dram.rank0.preBackEnergy  26819287680                       # Energy for precharge background per rank (pJ) (Joule)
system.mem_ctrls.dram.rank0.actPowerDownEnergy            0                       # Energy for active power-down per rank (pJ) (Joule)
system.mem_ctrls.dram.rank0.prePowerDownEnergy            0                       # Energy for precharge power-down per rank (pJ) (Joule)
system.mem_ctrls.dram.rank0.selfRefreshEnergy            0                       # Energy for self refresh per rank (pJ) (Joule)
system.mem_ctrls.dram.rank0.totalEnergy   58674925515                       # Total energy per rank (pJ) (Joule)
system.mem_ctrls.dram.rank0.averagePower   500.332901                       # Core power per rank (mW) (Watt)
system.mem_ctrls.dram.rank0.totalIdleTime            0                       # Total Idle time Per DRAM Rank (Tick)
system.mem_ctrls.dram.rank0.pwrStateTime::IDLE  69486967330                       # Time in different power states (Tick)
system.mem_ctrls.dram.rank0.pwrStateTime::REF   3915860000                       # Time in different power states (Tick)
system.mem_ctrls.dram.rank0.pwrStateTime::SREF            0                       # Time in different power states (Tick)
system.mem_ctrls.dram.rank0.pwrStateTime::PRE_PDN            0                       # Time in different power states (Tick)
system.mem_ctrls.dram.rank0.pwrStateTime::ACT  43868943843                       # Time in different power states (Tick)
system.mem_ctrls.dram.rank0.pwrStateTime::ACT_PDN            0                       # Time in different power states (Tick)
system.mem_ctrls.dram.rank1.actEnergy       221054400                       # Energy for activate commands per rank (pJ) (Joule)
system.mem_ctrls.dram.rank1.preEnergy       117493200                       # Energy for precharge commands per rank (pJ) (Joule)
system.mem_ctrls.dram.rank1.readEnergy      443429700                       # Energy for read commands per rank (pJ) (Joule)
system.mem_ctrls.dram.rank1.writeEnergy     202661280                       # Energy for write commands per rank (pJ) (Joule)
system.mem_ctrls.dram.rank1.refreshEnergy 9257093040.000002                       # Energy for refresh commands per rank (pJ) (Joule)
system.mem_ctrls.dram.rank1.actBackEnergy  22055102340                       # Energy for active background per rank (pJ) (Joule)
system.mem_ctrls.dram.rank1.preBackEnergy  26459642400                       # Energy for precharge background per rank (pJ) (Joule)
system.mem_ctrls.dram.rank1.actPowerDownEnergy            0                       # Energy for active power-down per rank (pJ) (Joule)
system.mem_ctrls.dram.rank1.prePowerDownEnergy            0                       # Energy for precharge power-down per rank (pJ) (Joule)
system.mem_ctrls.dram.rank1.selfRefreshEnergy            0                       # Energy for self refresh per rank (pJ) (Joule)
system.mem_ctrls.dram.rank1.totalEnergy   58756476360                       # Total energy per rank (pJ) (Joule)
system.mem_ctrls.dram.rank1.averagePower   501.028302                       # Core power per rank (mW) (Watt)
system.mem_ctrls.dram.rank1.totalIdleTime            0                       # Total Idle time Per DRAM Rank (Tick)
system.mem_ctrls.dram.rank1.pwrStateTime::IDLE  68544486423                       # Time in different power states (Tick)
system.mem_ctrls.dram.rank1.pwrStateTime::REF   3915860000                       # Time in different power states (Tick)
system.mem_ctrls.dram.rank1.pwrStateTime::SREF            0                       # Time in different power states (Tick)
system.mem_ctrls.dram.rank1.pwrStateTime::PRE_PDN            0                       # Time in different power states (Tick)
system.mem_ctrls.dram.rank1.pwrStateTime::ACT  44811424750                       # Time in different power states (Tick)
system.mem_ctrls.dram.rank1.pwrStateTime::ACT_PDN            0                       # Time in different power states (Tick)
system.mem_ctrls.power_state.pwrStateResidencyTicks::UNDEFINED 117271771173                       # Cumulative time (in ticks) in various power states (Tick)
system.membus.transDist::ReadResp               27826                       # Transaction distribution (Count)
system.membus.transDist::WritebackDirty         76762                       # Transaction distribution (Count)
system.membus.transDist::CleanEvict             13914                       # Transaction distribution (Count)
system.membus.transDist::ReadExReq              95962                       # Transaction distribution (Count)
system.membus.transDist::ReadExResp             95962                       # Transaction distribution (Count)
system.membus.transDist::ReadSharedReq          27826                       # Transaction distribution (Count)
system.membus.pktCount_system.l2.mem_side_port::system.mem_ctrls.port       338252                       # Packet count per connected requestor and responder (Count)
system.membus.pktCount_system.l2.mem_side_port::total       338252                       # Packet count per connected requestor and responder (Count)
system.membus.pktCount::total                  338252                       # Packet count per connected requestor and responder (Count)
system.membus.pktSize_system.l2.mem_side_port::system.mem_ctrls.port     12835200                       # Cumulative packet size per connected requestor and responder (Byte)
system.membus.pktSize_system.l2.mem_side_port::total     12835200                       # Cumulative packet size per connected requestor and responder (Byte)
system.membus.pktSize::total                 12835200                       # Cumulative packet size per connected requestor and responder (Byte)
system.membus.snoops                                0                       # Total snoops (Count)
system.membus.snoopTraffic                          0                       # Total snoop traffic (Byte)
system.membus.snoopFanout::samples             123788                       # Request fanout histogram (Count)
system.membus.snoopFanout::mean                     0                       # Request fanout histogram (Count)
system.membus.snoopFanout::stdev                    0                       # Request fanout histogram (Count)
system.membus.snoopFanout::underflows               0      0.00%      0.00% # Request fanout histogram (Count)
system.membus.snoopFanout::0                   123788    100.00%    100.00% # Request fanout histogram (Count)
system.membus.snoopFanout::1                        0      0.00%    100.00% # Request fanout histogram (Count)
system.membus.snoopFanout::overflows                0      0.00%    100.00% # Request fanout histogram (Count)
system.membus.snoopFanout::min_value                0                       # Request fanout histogram (Count)
system.membus.snoopFanout::max_value                0                       # Request fanout histogram (Count)
system.membus.snoopFanout::total               123788                       # Request fanout histogram (Count)
system.membus.power_state.pwrStateResidencyTicks::UNDEFINED 117271771173                       # Cumulative time (in ticks) in various power states (Tick)
system.membus.reqLayer2.occupancy           594985681                       # Layer occupancy (ticks) (Tick)
system.membus.reqLayer2.utilization               0.0                       # Layer utilization (Ratio)
system.membus.respLayer1.occupancy          659419097                       # Layer occupancy (ticks) (Tick)
system.membus.respLayer1.utilization              0.0                       # Layer utilization (Ratio)
system.membus.snoop_filter.totRequests         214464                       # Total number of requests made to the snoop filter. (Count)
system.membus.snoop_filter.hitSingleRequests        90676                       # Number of requests hitting in the snoop filter with a single holder of the requested data. (Count)
system.membus.snoop_filter.hitMultiRequests            0                       # Number of requests hitting in the snoop filter with multiple (>1) holders of the requested data. (Count)
system.membus.snoop_filter.totSnoops                0                       # Total number of snoops made to the snoop filter. (Count)
system.membus.snoop_filter.hitSingleSnoops            0                       # Number of snoops hitting in the snoop filter with a single holder of the requested data. (Count)
system.membus.snoop_filter.hitMultiSnoops            0                       # Number of snoops hitting in the snoop filter with multiple (>1) holders of the requested data. (Count)
system.tol2bus.transDist::ReadResp            1855060                       # Transaction distribution (Count)
system.tol2bus.transDist::WritebackDirty       890820                       # Transaction distribution (Count)
system.tol2bus.transDist::WritebackClean      1141589                       # Transaction distribution (Count)
system.tol2bus.transDist::CleanEvict            57999                       # Transaction distribution (Count)
system.tol2bus.transDist::ReadExReq            145555                       # Transaction distribution (Count)
system.tol2bus.transDist::ReadExResp           145555                       # Transaction distribution (Count)
system.tol2bus.transDist::ReadCleanReq        1142101                       # Transaction distribution (Count)
system.tol2bus.transDist::ReadSharedReq        712959                       # Transaction distribution (Count)
system.tol2bus.pktCount_system.cpu.icache.mem_side_port::system.l2.cpu_side_port      3425791                       # Packet count per connected requestor and responder (Count)
system.tol2bus.pktCount_system.cpu.dcache.mem_side_port::system.l2.cpu_side_port      2574518                       # Packet count per connected requestor and responder (Count)
system.tol2bus.pktCount::total                6000309                       # Packet count per connected requestor and responder (Count)
system.tol2bus.pktSize_system.cpu.icache.mem_side_port::system.l2.cpu_side_port    146156160                       # Cumulative packet size per connected requestor and responder (Byte)
system.tol2bus.pktSize_system.cpu.dcache.mem_side_port::system.l2.cpu_side_port    107044608                       # Cumulative packet size per connected requestor and responder (Byte)
system.tol2bus.pktSize::total               253200768                       # Cumulative packet size per connected requestor and responder (Byte)
system.tol2bus.snoops                           91329                       # Total snoops (Count)
system.tol2bus.snoopTraffic                   4912768                       # Total snoop traffic (Byte)
system.tol2bus.snoopFanout::samples           2091944                       # Request fanout histogram (Count)
system.tol2bus.snoopFanout::mean             0.000625                       # Request fanout histogram (Count)
system.tol2bus.snoopFanout::stdev            0.024988                       # Request fanout histogram (Count)
system.tol2bus.snoopFanout::underflows              0      0.00%      0.00% # Request fanout histogram (Count)
system.tol2bus.snoopFanout::0                 2090637     99.94%     99.94% # Request fanout histogram (Count)
system.tol2bus.snoopFanout::1                    1307      0.06%    100.00% # Request fanout histogram (Count)
system.tol2bus.snoopFanout::2                       0      0.00%    100.00% # Request fanout histogram (Count)
system.tol2bus.snoopFanout::3                       0      0.00%    100.00% # Request fanout histogram (Count)
system.tol2bus.snoopFanout::4                       0      0.00%    100.00% # Request fanout histogram (Count)
system.tol2bus.snoopFanout::overflows               0      0.00%    100.00% # Request fanout histogram (Count)
system.tol2bus.snoopFanout::min_value               0                       # Request fanout histogram (Count)
system.tol2bus.snoopFanout::max_value               1                       # Request fanout histogram (Count)
system.tol2bus.snoopFanout::total             2091944                       # Request fanout histogram (Count)
system.tol2bus.power_state.pwrStateResidencyTicks::UNDEFINED 117271771173                       # Cumulative time (in ticks) in various power states (Tick)
system.tol2bus.reqLayer0.occupancy         2634359004                       # Layer occupancy (ticks) (Tick)
system.tol2bus.reqLayer0.utilization              0.0                       # Layer utilization (Ratio)
system.tol2bus.respLayer0.occupancy        1140964211                       # Layer occupancy (ticks) (Tick)
system.tol2bus.respLayer0.utilization             0.0                       # Layer utilization (Ratio)
system.tol2bus.respLayer1.occupancy         857663122                       # Layer occupancy (ticks) (Tick)
system.tol2bus.respLayer1.utilization             0.0                       # Layer utilization (Ratio)
system.tol2bus.snoop_filter.totRequests       3999694                       # Total number of requests made to the snoop filter. (Count)
system.tol2bus.snoop_filter.hitSingleRequests      1999079                       # Number of requests hitting in the snoop filter with a single holder of the requested data. (Count)
system.tol2bus.snoop_filter.hitMultiRequests          654                       # Number of requests hitting in the snoop filter with multiple (>1) holders of the requested data. (Count)
system.tol2bus.snoop_filter.totSnoops             653                       # Total number of snoops made to the snoop filter. (Count)
system.tol2bus.snoop_filter.hitSingleSnoops          653                       # Number of snoops hitting in the snoop filter with a single holder of the requested data. (Count)
system.tol2bus.snoop_filter.hitMultiSnoops            0                       # Number of snoops hitting in the snoop filter with multiple (>1) holders of the requested data. (Count)
system.voltage_domain.voltage                       1                       # Voltage in Volts (Volt)
system.workload.inst.arm                            0                       # number of arm instructions executed (Count)
system.workload.inst.quiesce                        0                       # number of quiesce instructions executed (Count)
system.cpu.idleCycles                        54152577                       # Total number of cycles that the object has spent stopped (Unspecified)
system.cpu.tickCycles                       298014904                       # Number of cycles that the object actually ticked (Unspecified)

---------- End Simulation Statistics   ----------
